Version7/Distrib/IEEETestCases/LVTestCaseNorthAmerican/SecPar.dss
// this version has the secondary cables paralleled, for export to GridLAB-D via CIMHub
clear
Set DefaultBaseFrequency=60
new circuit.ieee390 basekv=230 pu=1.05 bus1=P1 mvasc3=200000 mvasc1=200000
 
new LineCode.Switch nphases=3 r1=1e-6 r0=1e-6 x1=1e-6 x0=1e-6 c1=0 c0=0

New Linecode.trans1 nphases=3  Units=mi
~ Rmatrix=[0.14519  |0.0925205  0.14519  |0.0925186  0.0925205  0.14519  ]
~ Xmatrix=[1.41011  |0.695545  1.41011  |0.611437  0.695545  1.41011  ]
~ Cmatrix=[12.4232  |-3.1131  12.989  |-1.63202  -3.1131  12.4232  ]

New Linecode.pri1 nphases=3  Units=mi
~ Rmatrix=[0.13018  |-4.14314E-006  0.130177  |-8.11898E-006  -4.14314E-006  0.13018  ]
~ Xmatrix=[0.0668195  |-0.000224891  0.066985  |-4.2835E-005  -0.000224891  0.0668195  ]
~ Cmatrix=[566.228  |0  566.228  |0  0  566.228  ]

New Linecode.sec1 nphases=3  Units=mi
~ Rmatrix=[0.33619  |0.128579  0.328163  |0.132719  0.128579  0.33619  ]
~ Xmatrix=[0.510307  |0.268686  0.575146  |0.193614  0.268686  0.510307  ]
~ Cmatrix=[34.0866  |-12.0789  34.1952  |-4.12143  -12.0789  34.0866  ]

New Linecode.sec5 nphases=3  Units=mi
~ Rmatrix=[0.067238 | 0.025716 0.065633 | 0.026544 0.025716 0.067238]
~ Xmatrix=[0.102061 | 0.053737 0.115029 | 0.038723 0.053737 0.102061]
~ Cmatrix=[170.4330 | -60.3945 170.9760 | -20.60715 -60.3945 170.4330]

New Linecode.sec6 nphases=3  Units=mi
~ Rmatrix=[0.056032 | 0.021430 0.054694 | 0.022120 0.021430 0.056032]
~ Xmatrix=[0.085051 | 0.044781 0.095858 | 0.032269 0.044781 0.085051]
~ Cmatrix=[204.5196 | -72.4734 205.1712 | -24.72858 -72.4734 204.5196]
 
new Line.1 bus1=P1.1.2.3 bus2=P2.1.2.3 phases=3 length=150 units=ft linecode=Trans1
new Line.2 bus1=P2.1.2.3 bus2=P3.1.2.3 phases=3 length=150 units=ft linecode=Trans1
new Line.3 bus1=P2.1.2.3 bus2=P7.1.2.3 phases=3 length=150 units=ft linecode=Trans1
new Line.4 bus1=P6.1.2.3 bus2=P11.1.2.3 phases=3 length=50 units=ft linecode=Pri1
new Line.5 bus1=P6.1.2.3 bus2=P27.1.2.3 phases=3 length=50 units=ft linecode=Pri1
new Line.6 bus1=P6.1.2.3 bus2=P44.1.2.3 phases=3 length=25 units=ft linecode=Pri1
new Line.7 bus1=P44.1.2.3 bus2=P45.1.2.3 phases=3 length=25 units=ft linecode=Pri1
new Line.8 bus1=P44.1.2.3 bus2=P62.1.2.3 phases=3 length=25 units=ft linecode=Pri1
new Line.9 bus1=P10.1.2.3 bus2=P81.1.2.3 phases=3 length=50 units=ft linecode=Pri1
new Line.10 bus1=P10.1.2.3 bus2=P97.1.2.3 phases=3 length=50 units=ft linecode=Pri1
new Line.11 bus1=P10.1.2.3 bus2=P116.1.2.3 phases=3 length=25 units=ft linecode=Pri1
new Line.12 bus1=P116.1.2.3 bus2=P117.1.2.3 phases=3 length=25 units=ft linecode=Pri1
new Line.13 bus1=P116.1.2.3 bus2=P134.1.2.3 phases=3 length=25 units=ft linecode=Pri1
new Line.14 bus1=P12.1.2.3 bus2=P13.1.2.3 phases=3 length=2500 units=ft linecode=Pri1
new Line.15 bus1=P13.1.2.3 bus2=P14.1.2.3 phases=3 length=100 units=ft linecode=Pri1
new Line.16 bus1=P13.1.2.3 bus2=P15.1.2.3 phases=3 length=100 units=ft linecode=Pri1
new Line.17 bus1=P15.1.2.3 bus2=P16.1.2.3 phases=3 length=100 units=ft linecode=Pri1
new Line.18 bus1=P16.1.2.3 bus2=P17.1.2.3 phases=3 length=100 units=ft linecode=Pri1
new Line.19 bus1=P15.1.2.3 bus2=P18.1.2.3 phases=3 length=100 units=ft linecode=Pri1
new Line.20 bus1=P18.1.2.3 bus2=P19.1.2.3 phases=3 length=100 units=ft linecode=Pri1
new Line.21 bus1=P18.1.2.3 bus2=P20.1.2.3 phases=3 length=100 units=ft linecode=Pri1
new Line.22 bus1=P20.1.2.3 bus2=P21.1.2.3 phases=3 length=100 units=ft linecode=Pri1
new Line.23 bus1=P21.1.2.3 bus2=P22.1.2.3 phases=3 length=100 units=ft linecode=Pri1
new Line.24 bus1=P20.1.2.3 bus2=P23.1.2.3 phases=3 length=100 units=ft linecode=Pri1
new Line.25 bus1=P23.1.2.3 bus2=P24.1.2.3 phases=3 length=100 units=ft linecode=Pri1
new Line.26 bus1=P23.1.2.3 bus2=P25.1.2.3 phases=3 length=100 units=ft linecode=Pri1
new Line.27 bus1=P25.1.2.3 bus2=P26.1.2.3 phases=3 length=100 units=ft linecode=Pri1
new Line.28 bus1=P28.1.2.3 bus2=P29.1.2.3 phases=3 length=2500 units=ft linecode=Pri1
new Line.29 bus1=P29.1.2.3 bus2=P30.1.2.3 phases=3 length=100 units=ft linecode=Pri1
new Line.30 bus1=P29.1.2.3 bus2=P31.1.2.3 phases=3 length=100 units=ft linecode=Pri1
new Line.31 bus1=P31.1.2.3 bus2=P32.1.2.3 phases=3 length=100 units=ft linecode=Pri1
new Line.32 bus1=P31.1.2.3 bus2=P33.1.2.3 phases=3 length=100 units=ft linecode=Pri1
new Line.33 bus1=P33.1.2.3 bus2=P34.1.2.3 phases=3 length=100 units=ft linecode=Pri1
new Line.34 bus1=P33.1.2.3 bus2=P35.1.2.3 phases=3 length=100 units=ft linecode=Pri1
new Line.35 bus1=P35.1.2.3 bus2=P36.1.2.3 phases=3 length=100 units=ft linecode=Pri1
new Line.36 bus1=P35.1.2.3 bus2=P37.1.2.3 phases=3 length=100 units=ft linecode=Pri1
new Line.37 bus1=P37.1.2.3 bus2=P38.1.2.3 phases=3 length=100 units=ft linecode=Pri1
new Line.38 bus1=P37.1.2.3 bus2=P39.1.2.3 phases=3 length=100 units=ft linecode=Pri1
new Line.39 bus1=P39.1.2.3 bus2=P40.1.2.3 phases=3 length=100 units=ft linecode=Pri1
new Line.40 bus1=P40.1.2.3 bus2=P41.1.2.3 phases=3 length=100 units=ft linecode=Pri1
new Line.41 bus1=P39.1.2.3 bus2=P42.1.2.3 phases=3 length=100 units=ft linecode=Pri1
new Line.42 bus1=P42.1.2.3 bus2=P43.1.2.3 phases=3 length=100 units=ft linecode=Pri1
new Line.43 bus1=P46.1.2.3 bus2=P47.1.2.3 phases=3 length=2500 units=ft linecode=Pri1
new Line.44 bus1=P47.1.2.3 bus2=P48.1.2.3 phases=3 length=100 units=ft linecode=Pri1
new Line.45 bus1=P47.1.2.3 bus2=P49.1.2.3 phases=3 length=100 units=ft linecode=Pri1
new Line.46 bus1=P49.1.2.3 bus2=P50.1.2.3 phases=3 length=100 units=ft linecode=Pri1
new Line.47 bus1=P49.1.2.3 bus2=P51.1.2.3 phases=3 length=100 units=ft linecode=Pri1
new Line.48 bus1=P51.1.2.3 bus2=P52.1.2.3 phases=3 length=100 units=ft linecode=Pri1
new Line.49 bus1=P51.1.2.3 bus2=P53.1.2.3 phases=3 length=100 units=ft linecode=Pri1
new Line.50 bus1=P53.1.2.3 bus2=P54.1.2.3 phases=3 length=100 units=ft linecode=Pri1
new Line.51 bus1=P54.1.2.3 bus2=P55.1.2.3 phases=3 length=100 units=ft linecode=Pri1
new Line.52 bus1=P55.1.2.3 bus2=P56.1.2.3 phases=3 length=100 units=ft linecode=Pri1
new Line.53 bus1=P53.1.2.3 bus2=P57.1.2.3 phases=3 length=100 units=ft linecode=Pri1
new Line.54 bus1=P57.1.2.3 bus2=P58.1.2.3 phases=3 length=100 units=ft linecode=Pri1
new Line.55 bus1=P57.1.2.3 bus2=P59.1.2.3 phases=3 length=100 units=ft linecode=Pri1
new Line.56 bus1=P59.1.2.3 bus2=P60.1.2.3 phases=3 length=100 units=ft linecode=Pri1
new Line.57 bus1=P60.1.2.3 bus2=P61.1.2.3 phases=3 length=100 units=ft linecode=Pri1
new Line.58 bus1=P63.1.2.3 bus2=P64.1.2.3 phases=3 length=2500 units=ft linecode=Pri1
new Line.59 bus1=P64.1.2.3 bus2=P65.1.2.3 phases=3 length=100 units=ft linecode=Pri1
new Line.60 bus1=P64.1.2.3 bus2=P66.1.2.3 phases=3 length=100 units=ft linecode=Pri1
new Line.61 bus1=P66.1.2.3 bus2=P67.1.2.3 phases=3 length=100 units=ft linecode=Pri1
new Line.62 bus1=P66.1.2.3 bus2=P68.1.2.3 phases=3 length=100 units=ft linecode=Pri1
new Line.63 bus1=P68.1.2.3 bus2=P69.1.2.3 phases=3 length=100 units=ft linecode=Pri1
new Line.64 bus1=P68.1.2.3 bus2=P70.1.2.3 phases=3 length=100 units=ft linecode=Pri1
new Line.65 bus1=P70.1.2.3 bus2=P71.1.2.3 phases=3 length=100 units=ft linecode=Pri1
new Line.66 bus1=P70.1.2.3 bus2=P72.1.2.3 phases=3 length=100 units=ft linecode=Pri1
new Line.67 bus1=P72.1.2.3 bus2=P73.1.2.3 phases=3 length=100 units=ft linecode=Pri1
new Line.68 bus1=P73.1.2.3 bus2=P74.1.2.3 phases=3 length=100 units=ft linecode=Pri1
new Line.69 bus1=P72.1.2.3 bus2=P75.1.2.3 phases=3 length=100 units=ft linecode=Pri1
new Line.70 bus1=P75.1.2.3 bus2=P76.1.2.3 phases=3 length=100 units=ft linecode=Pri1
new Line.71 bus1=P75.1.2.3 bus2=P77.1.2.3 phases=3 length=100 units=ft linecode=Pri1
new Line.72 bus1=P77.1.2.3 bus2=P78.1.2.3 phases=3 length=100 units=ft linecode=Pri1
new Line.73 bus1=P77.1.2.3 bus2=P79.1.2.3 phases=3 length=100 units=ft linecode=Pri1
new Line.74 bus1=P79.1.2.3 bus2=P80.1.2.3 phases=3 length=100 units=ft linecode=Pri1
new Line.75 bus1=P82.1.2.3 bus2=P83.1.2.3 phases=3 length=2500 units=ft linecode=Pri1
new Line.76 bus1=P83.1.2.3 bus2=P84.1.2.3 phases=3 length=100 units=ft linecode=Pri1
new Line.77 bus1=P83.1.2.3 bus2=P85.1.2.3 phases=3 length=100 units=ft linecode=Pri1
new Line.78 bus1=P85.1.2.3 bus2=P86.1.2.3 phases=3 length=100 units=ft linecode=Pri1
new Line.79 bus1=P86.1.2.3 bus2=P87.1.2.3 phases=3 length=100 units=ft linecode=Pri1
new Line.80 bus1=P85.1.2.3 bus2=P88.1.2.3 phases=3 length=100 units=ft linecode=Pri1
new Line.81 bus1=P88.1.2.3 bus2=P89.1.2.3 phases=3 length=100 units=ft linecode=Pri1
new Line.82 bus1=P88.1.2.3 bus2=P90.1.2.3 phases=3 length=100 units=ft linecode=Pri1
new Line.83 bus1=P90.1.2.3 bus2=P91.1.2.3 phases=3 length=100 units=ft linecode=Pri1
new Line.84 bus1=P91.1.2.3 bus2=P92.1.2.3 phases=3 length=100 units=ft linecode=Pri1
new Line.85 bus1=P90.1.2.3 bus2=P93.1.2.3 phases=3 length=100 units=ft linecode=Pri1
new Line.86 bus1=P93.1.2.3 bus2=P94.1.2.3 phases=3 length=100 units=ft linecode=Pri1
new Line.87 bus1=P93.1.2.3 bus2=P95.1.2.3 phases=3 length=100 units=ft linecode=Pri1
new Line.88 bus1=P95.1.2.3 bus2=P96.1.2.3 phases=3 length=100 units=ft linecode=Pri1
new Line.89 bus1=P98.1.2.3 bus2=P99.1.2.3 phases=3 length=2500 units=ft linecode=Pri1
new Line.90 bus1=P99.1.2.3 bus2=P100.1.2.3 phases=3 length=100 units=ft linecode=Pri1
new Line.91 bus1=P99.1.2.3 bus2=P101.1.2.3 phases=3 length=100 units=ft linecode=Pri1
new Line.92 bus1=P101.1.2.3 bus2=P102.1.2.3 phases=3 length=100 units=ft linecode=Pri1
new Line.93 bus1=P101.1.2.3 bus2=P103.1.2.3 phases=3 length=100 units=ft linecode=Pri1
new Line.94 bus1=P103.1.2.3 bus2=P104.1.2.3 phases=3 length=100 units=ft linecode=Pri1
new Line.95 bus1=P103.1.2.3 bus2=P105.1.2.3 phases=3 length=100 units=ft linecode=Pri1
new Line.96 bus1=P105.1.2.3 bus2=P106.1.2.3 phases=3 length=100 units=ft linecode=Pri1
new Line.97 bus1=P106.1.2.3 bus2=P107.1.2.3 phases=3 length=100 units=ft linecode=Pri1
new Line.98 bus1=P105.1.2.3 bus2=P108.1.2.3 phases=3 length=100 units=ft linecode=Pri1
new Line.99 bus1=P108.1.2.3 bus2=P109.1.2.3 phases=3 length=100 units=ft linecode=Pri1
new Line.100 bus1=P108.1.2.3 bus2=P110.1.2.3 phases=3 length=100 units=ft linecode=Pri1
new Line.101 bus1=P110.1.2.3 bus2=P111.1.2.3 phases=3 length=100 units=ft linecode=Pri1
new Line.102 bus1=P110.1.2.3 bus2=P112.1.2.3 phases=3 length=100 units=ft linecode=Pri1
new Line.103 bus1=P112.1.2.3 bus2=P113.1.2.3 phases=3 length=100 units=ft linecode=Pri1
new Line.104 bus1=P112.1.2.3 bus2=P114.1.2.3 phases=3 length=100 units=ft linecode=Pri1
new Line.105 bus1=P114.1.2.3 bus2=P115.1.2.3 phases=3 length=100 units=ft linecode=Pri1
new Line.106 bus1=P118.1.2.3 bus2=P119.1.2.3 phases=3 length=2500 units=ft linecode=Pri1
new Line.107 bus1=P119.1.2.3 bus2=P120.1.2.3 phases=3 length=100 units=ft linecode=Pri1
new Line.108 bus1=P119.1.2.3 bus2=P121.1.2.3 phases=3 length=100 units=ft linecode=Pri1
new Line.109 bus1=P121.1.2.3 bus2=P122.1.2.3 phases=3 length=100 units=ft linecode=Pri1
new Line.110 bus1=P121.1.2.3 bus2=P123.1.2.3 phases=3 length=100 units=ft linecode=Pri1
new Line.111 bus1=P123.1.2.3 bus2=P124.1.2.3 phases=3 length=100 units=ft linecode=Pri1
new Line.112 bus1=P123.1.2.3 bus2=P125.1.2.3 phases=3 length=100 units=ft linecode=Pri1
new Line.113 bus1=P125.1.2.3 bus2=P126.1.2.3 phases=3 length=100 units=ft linecode=Pri1
new Line.114 bus1=P125.1.2.3 bus2=P127.1.2.3 phases=3 length=100 units=ft linecode=Pri1
new Line.115 bus1=P127.1.2.3 bus2=P128.1.2.3 phases=3 length=100 units=ft linecode=Pri1
new Line.116 bus1=P127.1.2.3 bus2=P129.1.2.3 phases=3 length=100 units=ft linecode=Pri1
new Line.117 bus1=P129.1.2.3 bus2=P130.1.2.3 phases=3 length=100 units=ft linecode=Pri1
new Line.118 bus1=P130.1.2.3 bus2=P131.1.2.3 phases=3 length=100 units=ft linecode=Pri1
new Line.119 bus1=P129.1.2.3 bus2=P132.1.2.3 phases=3 length=100 units=ft linecode=Pri1
new Line.120 bus1=P132.1.2.3 bus2=P133.1.2.3 phases=3 length=100 units=ft linecode=Pri1
new Line.121 bus1=P135.1.2.3 bus2=P136.1.2.3 phases=3 length=2500 units=ft linecode=Pri1
new Line.122 bus1=P136.1.2.3 bus2=P137.1.2.3 phases=3 length=100 units=ft linecode=Pri1
new Line.123 bus1=P136.1.2.3 bus2=P138.1.2.3 phases=3 length=100 units=ft linecode=Pri1
new Line.124 bus1=P138.1.2.3 bus2=P139.1.2.3 phases=3 length=100 units=ft linecode=Pri1
new Line.125 bus1=P139.1.2.3 bus2=P140.1.2.3 phases=3 length=100 units=ft linecode=Pri1
new Line.126 bus1=P138.1.2.3 bus2=P141.1.2.3 phases=3 length=100 units=ft linecode=Pri1
new Line.127 bus1=P141.1.2.3 bus2=P142.1.2.3 phases=3 length=100 units=ft linecode=Pri1
new Line.128 bus1=P141.1.2.3 bus2=P143.1.2.3 phases=3 length=100 units=ft linecode=Pri1
new Line.129 bus1=P143.1.2.3 bus2=P144.1.2.3 phases=3 length=100 units=ft linecode=Pri1
new Line.130 bus1=P144.1.2.3 bus2=P145.1.2.3 phases=3 length=100 units=ft linecode=Pri1
new Line.131 bus1=P145.1.2.3 bus2=P146.1.2.3 phases=3 length=100 units=ft linecode=Pri1
new Line.132 bus1=P143.1.2.3 bus2=P147.1.2.3 phases=3 length=100 units=ft linecode=Pri1
new Line.133 bus1=P147.1.2.3 bus2=P148.1.2.3 phases=3 length=100 units=ft linecode=Pri1
new Line.134 bus1=P147.1.2.3 bus2=P149.1.2.3 phases=3 length=100 units=ft linecode=Pri1
new Line.135 bus1=P149.1.2.3 bus2=P150.1.2.3 phases=3 length=100 units=ft linecode=Pri1
new Line.136 bus1=S194.1.2.3 bus2=S193.1.2.3 phases=3 length=10 units=ft linecode=Sec5
new Line.137 bus1=S195.1.2.3 bus2=S193.1.2.3 phases=3 length=10 units=ft linecode=Sec5
new Line.138 bus1=S199.1.2.3 bus2=S198.1.2.3 phases=3 length=10 units=ft linecode=Sec5
new Line.139 bus1=S200.1.2.3 bus2=S198.1.2.3 phases=3 length=10 units=ft linecode=Sec5
new Line.140 bus1=S204.1.2.3 bus2=S203.1.2.3 phases=3 length=10 units=ft linecode=Sec5
new Line.141 bus1=S205.1.2.3 bus2=S203.1.2.3 phases=3 length=10 units=ft linecode=Sec5
new Line.142 bus1=S206.1.2.3 bus2=S203.1.2.3 phases=3 length=10 units=ft linecode=Sec5
new Line.143 bus1=S211.1.2.3 bus2=S210.1.2.3 phases=3 length=10 units=ft linecode=Sec5
new Line.144 bus1=S212.1.2.3 bus2=S210.1.2.3 phases=3 length=10 units=ft linecode=Sec5
new Line.145 bus1=S213.1.2.3 bus2=S210.1.2.3 phases=3 length=10 units=ft linecode=Sec5
new Line.146 bus1=S218.1.2.3 bus2=S217.1.2.3 phases=3 length=10 units=ft linecode=Sec5
new Line.147 bus1=S219.1.2.3 bus2=S217.1.2.3 phases=3 length=10 units=ft linecode=Sec5
new Line.148 bus1=S220.1.2.3 bus2=S217.1.2.3 phases=3 length=10 units=ft linecode=Sec5
new Line.149 bus1=S225.1.2.3 bus2=S224.1.2.3 phases=3 length=10 units=ft linecode=Sec5
new Line.150 bus1=S226.1.2.3 bus2=S224.1.2.3 phases=3 length=10 units=ft linecode=Sec5
new Line.151 bus1=S227.1.2.3 bus2=S224.1.2.3 phases=3 length=10 units=ft linecode=Sec5
new Line.152 bus1=S232.1.2.3 bus2=S231.1.2.3 phases=3 length=10 units=ft linecode=Sec5
new Line.153 bus1=S233.1.2.3 bus2=S231.1.2.3 phases=3 length=10 units=ft linecode=Sec5
new Line.154 bus1=S237.1.2.3 bus2=S236.1.2.3 phases=3 length=10 units=ft linecode=Sec5
new Line.155 bus1=S239.1.2.3 bus2=S236.1.2.3 phases=3 length=10 units=ft linecode=Sec5
new Line.156 bus1=S1.1.2.3 bus2=S2.1.2.3 phases=3 length=100 units=ft linecode=Sec6
new Line.157 bus1=S2.1.2.3 bus2=S3.1.2.3 phases=3 length=25 units=ft linecode=Sec6
new Line.158 bus1=S3.1.2.3 bus2=S4.1.2.3 phases=3 length=25 units=ft linecode=Sec6
new Line.159 bus1=S4.1.2.3 bus2=S5.1.2.3 phases=3 length=100 units=ft linecode=Sec6
new Line.160 bus1=S5.1.2.3 bus2=S6.1.2.3 phases=3 length=100 units=ft linecode=Sec6
new Line.161 bus1=S6.1.2.3 bus2=S7.1.2.3 phases=3 length=100 units=ft linecode=Sec6
new Line.162 bus1=S7.1.2.3 bus2=S8.1.2.3 phases=3 length=25 units=ft linecode=Sec6
new Line.163 bus1=S8.1.2.3 bus2=S9.1.2.3 phases=3 length=25 units=ft linecode=Sec6
new Line.164 bus1=S9.1.2.3 bus2=S10.1.2.3 phases=3 length=100 units=ft linecode=Sec6
new Line.165 bus1=S10.1.2.3 bus2=S11.1.2.3 phases=3 length=100 units=ft linecode=Sec6
new Line.166 bus1=S11.1.2.3 bus2=S12.1.2.3 phases=3 length=100 units=ft linecode=Sec6
new Line.167 bus1=S12.1.2.3 bus2=S13.1.2.3 phases=3 length=25 units=ft linecode=Sec6
new Line.168 bus1=S13.1.2.3 bus2=S14.1.2.3 phases=3 length=25 units=ft linecode=Sec6
new Line.169 bus1=S14.1.2.3 bus2=S15.1.2.3 phases=3 length=100 units=ft linecode=Sec6
new Line.170 bus1=S15.1.2.3 bus2=S16.1.2.3 phases=3 length=100 units=ft linecode=Sec6
new Line.171 bus1=S16.1.2.3 bus2=S17.1.2.3 phases=3 length=100 units=ft linecode=Sec6
new Line.172 bus1=S17.1.2.3 bus2=S18.1.2.3 phases=3 length=25 units=ft linecode=Sec6
new Line.173 bus1=S18.1.2.3 bus2=S19.1.2.3 phases=3 length=25 units=ft linecode=Sec6
new Line.174 bus1=S19.1.2.3 bus2=S20.1.2.3 phases=3 length=100 units=ft linecode=Sec6
new Line.175 bus1=S20.1.2.3 bus2=S21.1.2.3 phases=3 length=100 units=ft linecode=Sec6
new Line.176 bus1=S42.1.2.3 bus2=S43.1.2.3 phases=3 length=100 units=ft linecode=Sec6
new Line.177 bus1=S43.1.2.3 bus2=S44.1.2.3 phases=3 length=25 units=ft linecode=Sec6
new Line.178 bus1=S44.1.2.3 bus2=S45.1.2.3 phases=3 length=100 units=ft linecode=Sec6
new Line.179 bus1=S45.1.2.3 bus2=S46.1.2.3 phases=3 length=25 units=ft linecode=Sec6
new Line.180 bus1=S46.1.2.3 bus2=S47.1.2.3 phases=3 length=100 units=ft linecode=Sec6
new Line.181 bus1=S47.1.2.3 bus2=S48.1.2.3 phases=3 length=100 units=ft linecode=Sec6
new Line.182 bus1=S48.1.2.3 bus2=S49.1.2.3 phases=3 length=25 units=ft linecode=Sec6
new Line.183 bus1=S49.1.2.3 bus2=S50.1.2.3 phases=3 length=100 units=ft linecode=Sec6
new Line.184 bus1=S50.1.2.3 bus2=S51.1.2.3 phases=3 length=25 units=ft linecode=Sec6
new Line.185 bus1=S51.1.2.3 bus2=S52.1.2.3 phases=3 length=100 units=ft linecode=Sec6
new Line.186 bus1=S52.1.2.3 bus2=S53.1.2.3 phases=3 length=100 units=ft linecode=Sec6
new Line.187 bus1=S53.1.2.3 bus2=S54.1.2.3 phases=3 length=25 units=ft linecode=Sec6
new Line.188 bus1=S54.1.2.3 bus2=S55.1.2.3 phases=3 length=100 units=ft linecode=Sec6
new Line.189 bus1=S55.1.2.3 bus2=S56.1.2.3 phases=3 length=25 units=ft linecode=Sec6
new Line.190 bus1=S56.1.2.3 bus2=S57.1.2.3 phases=3 length=100 units=ft linecode=Sec6
new Line.191 bus1=S57.1.2.3 bus2=S58.1.2.3 phases=3 length=100 units=ft linecode=Sec6
new Line.192 bus1=S58.1.2.3 bus2=S59.1.2.3 phases=3 length=25 units=ft linecode=Sec6
new Line.193 bus1=S59.1.2.3 bus2=S60.1.2.3 phases=3 length=100 units=ft linecode=Sec6
new Line.194 bus1=S60.1.2.3 bus2=S61.1.2.3 phases=3 length=25 units=ft linecode=Sec6
new Line.195 bus1=S61.1.2.3 bus2=S62.1.2.3 phases=3 length=100 units=ft linecode=Sec6
new Line.196 bus1=S83.1.2.3 bus2=S84.1.2.3 phases=3 length=100 units=ft linecode=Sec6
new Line.197 bus1=S84.1.2.3 bus2=S85.1.2.3 phases=3 length=25 units=ft linecode=Sec6
new Line.198 bus1=S85.1.2.3 bus2=S86.1.2.3 phases=3 length=100 units=ft linecode=Sec6
new Line.199 bus1=S86.1.2.3 bus2=S87.1.2.3 phases=3 length=25 units=ft linecode=Sec6
new Line.200 bus1=S87.1.2.3 bus2=S88.1.2.3 phases=3 length=100 units=ft linecode=Sec6
...
  close Line.1_sw 1
new Line.2_sw bus1=P5.1.2.3 bus2=P6.1.2.3 phases=3 switch=yes linecode=switch length=1
  close Line.2_sw 1
new Line.3_sw bus1=P7.1.2.3 bus2=P8.1.2.3 phases=3 switch=yes linecode=switch length=1
  close Line.3_sw 1
new Line.4_sw bus1=P9.1.2.3 bus2=P10.1.2.3 phases=3 switch=yes linecode=switch length=1
  close Line.4_sw 1
new Line.5_sw bus1=P11.1.2.3 bus2=P12.1.2.3 phases=3 switch=yes linecode=switch length=1
  close Line.5_sw 1
new Line.6_sw bus1=P27.1.2.3 bus2=P28.1.2.3 phases=3 switch=yes linecode=switch length=1
  close Line.6_sw 1
new Line.7_sw bus1=P45.1.2.3 bus2=P46.1.2.3 phases=3 switch=yes linecode=switch length=1
  close Line.7_sw 1
new Line.8_sw bus1=P62.1.2.3 bus2=P63.1.2.3 phases=3 switch=yes linecode=switch length=1
  close Line.8_sw 1
new Line.9_sw bus1=P81.1.2.3 bus2=P82.1.2.3 phases=3 switch=yes linecode=switch length=1
  close Line.9_sw 1
new Line.10_sw bus1=P97.1.2.3 bus2=P98.1.2.3 phases=3 switch=yes linecode=switch length=1
  close Line.10_sw 1
new Line.11_sw bus1=P117.1.2.3 bus2=P118.1.2.3 phases=3 switch=yes linecode=switch length=1
  close Line.11_sw 1
new Line.12_sw bus1=P134.1.2.3 bus2=P135.1.2.3 phases=3 switch=yes linecode=switch length=1
  close Line.12_sw 1
new Line.13_sw bus1=S148.1.2.3 bus2=S27.1.2.3 phases=3 switch=yes linecode=switch length=1
  close Line.13_sw 1
new Line.14_sw bus1=S145.1.2.3 bus2=S4.1.2.3 phases=3 switch=yes linecode=switch length=1
  close Line.14_sw 1
new Line.15_sw bus1=S152.1.2.3 bus2=S28.1.2.3 phases=3 switch=yes linecode=switch length=1
  close Line.15_sw 1
new Line.16_sw bus1=S149.1.2.3 bus2=S9.1.2.3 phases=3 switch=yes linecode=switch length=1
  close Line.16_sw 1
new Line.17_sw bus1=S156.1.2.3 bus2=S29.1.2.3 phases=3 switch=yes linecode=switch length=1
  close Line.17_sw 1
new Line.18_sw bus1=S153.1.2.3 bus2=S14.1.2.3 phases=3 switch=yes linecode=switch length=1
  close Line.18_sw 1
new Line.19_sw bus1=S160.1.2.3 bus2=S30.1.2.3 phases=3 switch=yes linecode=switch length=1
  close Line.19_sw 1
new Line.20_sw bus1=S157.1.2.3 bus2=S19.1.2.3 phases=3 switch=yes linecode=switch length=1
  close Line.20_sw 1
new Line.21_sw bus1=S147.1.2.3 bus2=S44.1.2.3 phases=3 switch=yes linecode=switch length=1
  close Line.21_sw 1
new Line.22_sw bus1=S146.1.2.3 bus2=S33.1.2.3 phases=3 switch=yes linecode=switch length=1
  close Line.22_sw 1
new Line.23_sw bus1=S151.1.2.3 bus2=S49.1.2.3 phases=3 switch=yes linecode=switch length=1
  close Line.23_sw 1
new Line.24_sw bus1=S150.1.2.3 bus2=S34.1.2.3 phases=3 switch=yes linecode=switch length=1
  close Line.24_sw 1
new Line.25_sw bus1=S155.1.2.3 bus2=S54.1.2.3 phases=3 switch=yes linecode=switch length=1
  close Line.25_sw 1
new Line.26_sw bus1=S154.1.2.3 bus2=S35.1.2.3 phases=3 switch=yes linecode=switch length=1
  close Line.26_sw 1
new Line.27_sw bus1=S159.1.2.3 bus2=S59.1.2.3 phases=3 switch=yes linecode=switch length=1
  close Line.27_sw 1
new Line.28_sw bus1=S158.1.2.3 bus2=S36.1.2.3 phases=3 switch=yes linecode=switch length=1
  close Line.28_sw 1
new Line.29_sw bus1=S164.1.2.3 bus2=S68.1.2.3 phases=3 switch=yes linecode=switch length=1
  close Line.29_sw 1
new Line.30_sw bus1=S161.1.2.3 bus2=S45.1.2.3 phases=3 switch=yes linecode=switch length=1
  close Line.30_sw 1
new Line.31_sw bus1=S168.1.2.3 bus2=S69.1.2.3 phases=3 switch=yes linecode=switch length=1
  close Line.31_sw 1
new Line.32_sw bus1=S165.1.2.3 bus2=S50.1.2.3 phases=3 switch=yes linecode=switch length=1
  close Line.32_sw 1
new Line.33_sw bus1=S172.1.2.3 bus2=S70.1.2.3 phases=3 switch=yes linecode=switch length=1
  close Line.33_sw 1
new Line.34_sw bus1=S169.1.2.3 bus2=S55.1.2.3 phases=3 switch=yes linecode=switch length=1
  close Line.34_sw 1
new Line.35_sw bus1=S176.1.2.3 bus2=S71.1.2.3 phases=3 switch=yes linecode=switch length=1
  close Line.35_sw 1
new Line.36_sw bus1=S173.1.2.3 bus2=S60.1.2.3 phases=3 switch=yes linecode=switch length=1
  close Line.36_sw 1
new Line.37_sw bus1=S163.1.2.3 bus2=S85.1.2.3 phases=3 switch=yes linecode=switch length=1
  close Line.37_sw 1
new Line.38_sw bus1=S162.1.2.3 bus2=S74.1.2.3 phases=3 switch=yes linecode=switch length=1
  close Line.38_sw 1
new Line.39_sw bus1=S167.1.2.3 bus2=S90.1.2.3 phases=3 switch=yes linecode=switch length=1
  close Line.39_sw 1
new Line.40_sw bus1=S166.1.2.3 bus2=S75.1.2.3 phases=3 switch=yes linecode=switch length=1
  close Line.40_sw 1
new Line.41_sw bus1=S171.1.2.3 bus2=S95.1.2.3 phases=3 switch=yes linecode=switch length=1
  close Line.41_sw 1
new Line.42_sw bus1=S170.1.2.3 bus2=S76.1.2.3 phases=3 switch=yes linecode=switch length=1
  close Line.42_sw 1
new Line.43_sw bus1=S175.1.2.3 bus2=S100.1.2.3 phases=3 switch=yes linecode=switch length=1
  close Line.43_sw 1
new Line.44_sw bus1=S174.1.2.3 bus2=S77.1.2.3 phases=3 switch=yes linecode=switch length=1
  close Line.44_sw 1
new Line.45_sw bus1=S180.1.2.3 bus2=S109.1.2.3 phases=3 switch=yes linecode=switch length=1
  close Line.45_sw 1
new Line.46_sw bus1=S177.1.2.3 bus2=S86.1.2.3 phases=3 switch=yes linecode=switch length=1
  close Line.46_sw 1
new Line.47_sw bus1=S184.1.2.3 bus2=S110.1.2.3 phases=3 switch=yes linecode=switch length=1
  close Line.47_sw 1
new Line.48_sw bus1=S181.1.2.3 bus2=S91.1.2.3 phases=3 switch=yes linecode=switch length=1
  close Line.48_sw 1
new Line.49_sw bus1=S188.1.2.3 bus2=S111.1.2.3 phases=3 switch=yes linecode=switch length=1
  close Line.49_sw 1
new Line.50_sw bus1=S185.1.2.3 bus2=S96.1.2.3 phases=3 switch=yes linecode=switch length=1
  close Line.50_sw 1
new Line.51_sw bus1=S192.1.2.3 bus2=S112.1.2.3 phases=3 switch=yes linecode=switch length=1
  close Line.51_sw 1
new Line.52_sw bus1=S189.1.2.3 bus2=S101.1.2.3 phases=3 switch=yes linecode=switch length=1
  close Line.52_sw 1
new Line.53_sw bus1=S179.1.2.3 bus2=S126.1.2.3 phases=3 switch=yes linecode=switch length=1
  close Line.53_sw 1
new Line.54_sw bus1=S178.1.2.3 bus2=S115.1.2.3 phases=3 switch=yes linecode=switch length=1
  close Line.54_sw 1
new Line.55_sw bus1=S183.1.2.3 bus2=S131.1.2.3 phases=3 switch=yes linecode=switch length=1
  close Line.55_sw 1
new Line.56_sw bus1=S182.1.2.3 bus2=S116.1.2.3 phases=3 switch=yes linecode=switch length=1
  close Line.56_sw 1
new Line.57_sw bus1=S187.1.2.3 bus2=S136.1.2.3 phases=3 switch=yes linecode=switch length=1
  close Line.57_sw 1
new Line.58_sw bus1=S186.1.2.3 bus2=S117.1.2.3 phases=3 switch=yes linecode=switch length=1
  close Line.58_sw 1
new Line.59_sw bus1=S191.1.2.3 bus2=S141.1.2.3 phases=3 switch=yes linecode=switch length=1
  close Line.59_sw 1
new Line.60_sw bus1=S190.1.2.3 bus2=S118.1.2.3 phases=3 switch=yes linecode=switch length=1
  close Line.60_sw 1
new Line.61_sw bus1=S196.1.2.3 bus2=S194.1.2.3 phases=3 switch=yes linecode=switch length=1
  close Line.61_sw 1
new Line.62_sw bus1=S197.1.2.3 bus2=S195.1.2.3 phases=3 switch=yes linecode=switch length=1
  close Line.62_sw 1
new Line.63_sw bus1=S201.1.2.3 bus2=S199.1.2.3 phases=3 switch=yes linecode=switch length=1
  close Line.63_sw 1
new Line.64_sw bus1=S202.1.2.3 bus2=S200.1.2.3 phases=3 switch=yes linecode=switch length=1
  close Line.64_sw 1
new Line.65_sw bus1=S207.1.2.3 bus2=S204.1.2.3 phases=3 switch=yes linecode=switch length=1
  close Line.65_sw 1
new Line.66_sw bus1=S208.1.2.3 bus2=S205.1.2.3 phases=3 switch=yes linecode=switch length=1
  close Line.66_sw 1
new Line.67_sw bus1=S209.1.2.3 bus2=S206.1.2.3 phases=3 switch=yes linecode=switch length=1
  close Line.67_sw 1
new Line.68_sw bus1=S214.1.2.3 bus2=S211.1.2.3 phases=3 switch=yes linecode=switch length=1
  close Line.68_sw 1
new Line.69_sw bus1=S215.1.2.3 bus2=S212.1.2.3 phases=3 switch=yes linecode=switch length=1
  close Line.69_sw 1
new Line.70_sw bus1=S216.1.2.3 bus2=S213.1.2.3 phases=3 switch=yes linecode=switch length=1
  close Line.70_sw 1
new Line.71_sw bus1=S221.1.2.3 bus2=S218.1.2.3 phases=3 switch=yes linecode=switch length=1
  close Line.71_sw 1
new Line.72_sw bus1=S222.1.2.3 bus2=S219.1.2.3 phases=3 switch=yes linecode=switch length=1
  close Line.72_sw 1
new Line.73_sw bus1=S223.1.2.3 bus2=S220.1.2.3 phases=3 switch=yes linecode=switch length=1
  close Line.73_sw 1
new Line.74_sw bus1=S228.1.2.3 bus2=S225.1.2.3 phases=3 switch=yes linecode=switch length=1
  close Line.74_sw 1
new Line.75_sw bus1=S229.1.2.3 bus2=S226.1.2.3 phases=3 switch=yes linecode=switch length=1
  close Line.75_sw 1
new Line.76_sw bus1=S230.1.2.3 bus2=S227.1.2.3 phases=3 switch=yes linecode=switch length=1
  close Line.76_sw 1
new Line.77_sw bus1=S234.1.2.3 bus2=S232.1.2.3 phases=3 switch=yes linecode=switch length=1
  close Line.77_sw 1
new Line.78_sw bus1=S235.1.2.3 bus2=S233.1.2.3 phases=3 switch=yes linecode=switch length=1
  close Line.78_sw 1
new Line.79_sw bus1=S238.1.2.3 bus2=S237.1.2.3 phases=3 switch=yes linecode=switch length=1
  close Line.79_sw 1
new Line.80_sw bus1=S240.1.2.3 bus2=S239.1.2.3 phases=3 switch=yes linecode=switch length=1
  close Line.80_sw 1
 
new Load.1 phases=1 bus1=S193.1 conn=w kv=0.277 kw=364.07 pf=0.97
new Load.2 phases=1 bus1=S193.2 conn=w kv=0.277 kw=413.73 pf=0.94
new Load.3 phases=1 bus1=S193.3 conn=w kv=0.277 kw=360.05 pf=0.91
new Load.4 phases=1 bus1=S193.1.2 conn=d kv=0.480 kw=96.80 pf=0.82
new Load.5 phases=1 bus1=S193.2.3 conn=d kv=0.480 kw=132.06 pf=0.80
new Load.6 phases=1 bus1=S193.3.1 conn=d kv=0.480 kw=95.21 pf=0.78
new Load.7 phases=1 bus1=S198.1 conn=w kv=0.277 kw=90.83 pf=0.97
new Load.8 phases=1 bus1=S198.2 conn=w kv=0.277 kw=97.25 pf=0.98
new Load.9 phases=1 bus1=S198.3 conn=w kv=0.277 kw=100.79 pf=0.93
new Load.10 phases=1 bus1=S198.1.2 conn=d kv=0.480 kw=188.32 pf=0.81
new Load.11 phases=1 bus1=S198.2.3 conn=d kv=0.480 kw=187.95 pf=0.77
new Load.12 phases=1 bus1=S198.3.1 conn=d kv=0.480 kw=203.01 pf=0.76
new Load.13 phases=1 bus1=S203.1 conn=w kv=0.277 kw=238.82 pf=0.98
new Load.14 phases=1 bus1=S203.2 conn=w kv=0.277 kw=232.47 pf=0.92
new Load.15 phases=1 bus1=S203.3 conn=w kv=0.277 kw=228.58 pf=1.00
new Load.16 phases=1 bus1=S203.1.2 conn=d kv=0.480 kw=565.80 pf=0.78
new Load.17 phases=1 bus1=S203.2.3 conn=d kv=0.480 kw=475.55 pf=0.78
new Load.18 phases=1 bus1=S203.3.1 conn=d kv=0.480 kw=533.69 pf=0.82
new Load.19 phases=1 bus1=S210.1 conn=w kv=0.277 kw=321.65 pf=0.94
new Load.20 phases=1 bus1=S210.2 conn=w kv=0.277 kw=303.75 pf=0.97
new Load.21 phases=1 bus1=S210.3 conn=w kv=0.277 kw=303.87 pf=0.96
new Load.22 phases=1 bus1=S210.1.2 conn=d kv=0.480 kw=571.83 pf=0.84
new Load.23 phases=1 bus1=S210.2.3 conn=d kv=0.480 kw=586.56 pf=0.81
new Load.24 phases=1 bus1=S210.3.1 conn=d kv=0.480 kw=615.94 pf=0.84
new Load.25 phases=1 bus1=S217.1 conn=w kv=0.277 kw=373.14 pf=0.92
new Load.26 phases=1 bus1=S217.2 conn=w kv=0.277 kw=320.71 pf=0.92
new Load.27 phases=1 bus1=S217.3 conn=w kv=0.277 kw=345.84 pf=0.93
new Load.28 phases=1 bus1=S217.1.2 conn=d kv=0.480 kw=621.67 pf=0.80
new Load.29 phases=1 bus1=S217.2.3 conn=d kv=0.480 kw=618.18 pf=0.80
new Load.30 phases=1 bus1=S217.3.1 conn=d kv=0.480 kw=580.83 pf=0.80
new Load.31 phases=1 bus1=S224.1 conn=w kv=0.277 kw=386.89 pf=0.91
new Load.32 phases=1 bus1=S224.2 conn=w kv=0.277 kw=317.26 pf=0.95
new Load.33 phases=1 bus1=S224.3 conn=w kv=0.277 kw=282.42 pf=0.97
new Load.34 phases=1 bus1=S224.1.2 conn=d kv=0.480 kw=652.02 pf=0.80
new Load.35 phases=1 bus1=S224.2.3 conn=d kv=0.480 kw=652.91 pf=0.78
new Load.36 phases=1 bus1=S224.3.1 conn=d kv=0.480 kw=588.22 pf=0.79
new Load.37 phases=1 bus1=S231.1 conn=w kv=0.277 kw=55.67 pf=0.93
new Load.38 phases=1 bus1=S231.2 conn=w kv=0.277 kw=39.90 pf=0.92
new Load.39 phases=1 bus1=S231.3 conn=w kv=0.277 kw=52.71 pf=0.92
new Load.40 phases=1 bus1=S231.1.2 conn=d kv=0.480 kw=81.26 pf=0.81
new Load.41 phases=1 bus1=S231.2.3 conn=d kv=0.480 kw=92.16 pf=0.78
new Load.42 phases=1 bus1=S231.3.1 conn=d kv=0.480 kw=104.45 pf=0.84
new Load.43 phases=1 bus1=S236.1 conn=w kv=0.277 kw=276.92 pf=0.96
new Load.44 phases=1 bus1=S236.2 conn=w kv=0.277 kw=310.85 pf=0.99
new Load.45 phases=1 bus1=S236.3 conn=w kv=0.277 kw=312.34 pf=0.92
new Load.46 phases=1 bus1=S236.1.2 conn=d kv=0.480 kw=616.16 pf=0.78
new Load.47 phases=1 bus1=S236.2.3 conn=d kv=0.480 kw=624.23 pf=0.76
new Load.48 phases=1 bus1=S236.3.1 conn=d kv=0.480 kw=563.51 pf=0.79
new Load.49 phases=1 bus1=S1.1 conn=w kv=0.120 kw=16.11 pf=0.95
new Load.50 phases=1 bus1=S1.2 conn=w kv=0.120 kw=11.28 pf=0.94
new Load.51 phases=1 bus1=S1.3 conn=w kv=0.120 kw=15.30 pf=0.92
new Load.52 phases=1 bus1=S1.1.2 conn=d kv=0.208 kw=32.44 pf=0.81
new Load.53 phases=1 bus1=S1.2.3 conn=d kv=0.208 kw=34.69 pf=0.76
new Load.54 phases=1 bus1=S1.3.1 conn=d kv=0.208 kw=35.71 pf=0.79
new Load.55 phases=1 bus1=S2.1 conn=w kv=0.120 kw=12.12 pf=0.93
new Load.56 phases=1 bus1=S2.2 conn=w kv=0.120 kw=12.59 pf=0.93
new Load.57 phases=1 bus1=S2.3 conn=w kv=0.120 kw=11.45 pf=0.98
new Load.58 phases=1 bus1=S2.1.2 conn=d kv=0.208 kw=29.83 pf=0.78
new Load.59 phases=1 bus1=S2.2.3 conn=d kv=0.208 kw=34.51 pf=0.83
new Load.60 phases=1 bus1=S2.3.1 conn=d kv=0.208 kw=35.70 pf=0.78
new Load.61 phases=1 bus1=S3.1 conn=w kv=0.120 kw=15.59 pf=0.91
new Load.62 phases=1 bus1=S3.2 conn=w kv=0.120 kw=12.00 pf=0.97
new Load.63 phases=1 bus1=S3.3 conn=w kv=0.120 kw=11.90 pf=0.99
new Load.64 phases=1 bus1=S3.1.2 conn=d kv=0.208 kw=35.18 pf=0.83
new Load.65 phases=1 bus1=S3.2.3 conn=d kv=0.208 kw=30.71 pf=0.80
new Load.66 phases=1 bus1=S3.3.1 conn=d kv=0.208 kw=32.33 pf=0.81
new Load.67 phases=1 bus1=S5.1 conn=w kv=0.120 kw=16.10 pf=0.93
new Load.68 phases=1 bus1=S5.2 conn=w kv=0.120 kw=15.52 pf=0.95
new Load.69 phases=1 bus1=S5.3 conn=w kv=0.120 kw=13.30 pf=0.94
new Load.70 phases=1 bus1=S5.1.2 conn=d kv=0.208 kw=27.99 pf=0.83
new Load.71 phases=1 bus1=S5.2.3 conn=d kv=0.208 kw=34.21 pf=0.78
new Load.72 phases=1 bus1=S5.3.1 conn=d kv=0.208 kw=28.45 pf=0.77
new Load.73 phases=1 bus1=S6.1 conn=w kv=0.120 kw=15.48 pf=0.98
new Load.74 phases=1 bus1=S6.2 conn=w kv=0.120 kw=12.08 pf=0.96
new Load.75 phases=1 bus1=S6.3 conn=w kv=0.120 kw=13.38 pf=1.00
new Load.76 phases=1 bus1=S6.1.2 conn=d kv=0.208 kw=28.93 pf=0.80
new Load.77 phases=1 bus1=S6.2.3 conn=d kv=0.208 kw=31.92 pf=0.77
new Load.78 phases=1 bus1=S6.3.1 conn=d kv=0.208 kw=33.13 pf=0.78
new Load.79 phases=1 bus1=S7.1 conn=w kv=0.120 kw=12.66 pf=0.91
new Load.80 phases=1 bus1=S7.2 conn=w kv=0.120 kw=13.14 pf=0.95
new Load.81 phases=1 bus1=S7.3 conn=w kv=0.120 kw=13.76 pf=0.99
new Load.82 phases=1 bus1=S7.1.2 conn=d kv=0.208 kw=30.27 pf=0.77
new Load.83 phases=1 bus1=S7.2.3 conn=d kv=0.208 kw=34.89 pf=0.79
new Load.84 phases=1 bus1=S7.3.1 conn=d kv=0.208 kw=31.74 pf=0.78
new Load.85 phases=1 bus1=S8.1 conn=w kv=0.120 kw=13.93 pf=0.93
new Load.86 phases=1 bus1=S8.2 conn=w kv=0.120 kw=13.06 pf=0.99
new Load.87 phases=1 bus1=S8.3 conn=w kv=0.120 kw=14.97 pf=0.91
new Load.88 phases=1 bus1=S8.1.2 conn=d kv=0.208 kw=27.75 pf=0.78
new Load.89 phases=1 bus1=S8.2.3 conn=d kv=0.208 kw=31.78 pf=0.83
new Load.90 phases=1 bus1=S8.3.1 conn=d kv=0.208 kw=35.14 pf=0.83
new Load.91 phases=1 bus1=S10.1 conn=w kv=0.120 kw=12.64 pf=0.96
new Load.92 phases=1 bus1=S10.2 conn=w kv=0.120 kw=13.59 pf=0.96
new Load.93 phases=1 bus1=S10.3 conn=w kv=0.120 kw=12.04 pf=0.91
new Load.94 phases=1 bus1=S10.1.2 conn=d kv=0.208 kw=35.54 pf=0.76
new Load.95 phases=1 bus1=S10.2.3 conn=d kv=0.208 kw=34.64 pf=0.82
new Load.96 phases=1 bus1=S10.3.1 conn=d kv=0.208 kw=26.30 pf=0.77
new Load.97 phases=1 bus1=S11.1 conn=w kv=0.120 kw=11.72 pf=0.98
new Load.98 phases=1 bus1=S11.2 conn=w kv=0.120 kw=14.34 pf=0.91
new Load.99 phases=1 bus1=S11.3 conn=w kv=0.120 kw=12.57 pf=0.96
new Load.100 phases=1 bus1=S11.1.2 conn=d kv=0.208 kw=28.59 pf=0.82
new Load.101 phases=1 bus1=S11.2.3 conn=d kv=0.208 kw=35.81 pf=0.80
new Load.102 phases=1 bus1=S11.3.1 conn=d kv=0.208 kw=29.03 pf=0.81
new Load.103 phases=1 bus1=S12.1 conn=w kv=0.120 kw=15.65 pf=0.91
new Load.104 phases=1 bus1=S12.2 conn=w kv=0.120 kw=14.77 pf=1.00
new Load.105 phases=1 bus1=S12.3 conn=w kv=0.120 kw=11.73 pf=0.97
new Load.106 phases=1 bus1=S12.1.2 conn=d kv=0.208 kw=30.47 pf=0.83
new Load.107 phases=1 bus1=S12.2.3 conn=d kv=0.208 kw=34.06 pf=0.83
new Load.108 phases=1 bus1=S12.3.1 conn=d kv=0.208 kw=28.34 pf=0.80
new Load.109 phases=1 bus1=S13.1 conn=w kv=0.120 kw=15.74 pf=0.94
new Load.110 phases=1 bus1=S13.2 conn=w kv=0.120 kw=13.47 pf=0.95
new Load.111 phases=1 bus1=S13.3 conn=w kv=0.120 kw=15.21 pf=0.94
new Load.112 phases=1 bus1=S13.1.2 conn=d kv=0.208 kw=30.60 pf=0.78
new Load.113 phases=1 bus1=S13.2.3 conn=d kv=0.208 kw=33.97 pf=0.84
new Load.114 phases=1 bus1=S13.3.1 conn=d kv=0.208 kw=33.37 pf=0.82
new Load.115 phases=1 bus1=S15.1 conn=w kv=0.120 kw=16.13 pf=0.97
new Load.116 phases=1 bus1=S15.2 conn=w kv=0.120 kw=12.66 pf=1.00
new Load.117 phases=1 bus1=S15.3 conn=w kv=0.120 kw=14.31 pf=0.99
new Load.118 phases=1 bus1=S15.1.2 conn=d kv=0.208 kw=28.37 pf=0.83
new Load.119 phases=1 bus1=S15.2.3 conn=d kv=0.208 kw=33.63 pf=0.83
new Load.120 phases=1 bus1=S15.3.1 conn=d kv=0.208 kw=30.78 pf=0.79
new Load.121 phases=1 bus1=S16.1 conn=w kv=0.120 kw=13.54 pf=0.97
new Load.122 phases=1 bus1=S16.2 conn=w kv=0.120 kw=13.05 pf=0.95
new Load.123 phases=1 bus1=S16.3 conn=w kv=0.120 kw=13.72 pf=0.94
new Load.124 phases=1 bus1=S16.1.2 conn=d kv=0.208 kw=35.73 pf=0.81
new Load.125 phases=1 bus1=S16.2.3 conn=d kv=0.208 kw=30.73 pf=0.83
new Load.126 phases=1 bus1=S16.3.1 conn=d kv=0.208 kw=33.05 pf=0.81
new Load.127 phases=1 bus1=S17.1 conn=w kv=0.120 kw=13.45 pf=0.97
new Load.128 phases=1 bus1=S17.2 conn=w kv=0.120 kw=11.68 pf=0.97
new Load.129 phases=1 bus1=S17.3 conn=w kv=0.120 kw=12.86 pf=0.90
new Load.130 phases=1 bus1=S17.1.2 conn=d kv=0.208 kw=33.05 pf=0.77
new Load.131 phases=1 bus1=S17.2.3 conn=d kv=0.208 kw=34.36 pf=0.77
new Load.132 phases=1 bus1=S17.3.1 conn=d kv=0.208 kw=27.45 pf=0.81
new Load.133 phases=1 bus1=S18.1 conn=w kv=0.120 kw=16.05 pf=0.96
new Load.134 phases=1 bus1=S18.2 conn=w kv=0.120 kw=14.81 pf=0.97
new Load.135 phases=1 bus1=S18.3 conn=w kv=0.120 kw=15.43 pf=1.00
new Load.136 phases=1 bus1=S18.1.2 conn=d kv=0.208 kw=32.33 pf=0.80
new Load.137 phases=1 bus1=S18.2.3 conn=d kv=0.208 kw=32.97 pf=0.82
new Load.138 phases=1 bus1=S18.3.1 conn=d kv=0.208 kw=29.70 pf=0.77
new Load.139 phases=1 bus1=S19.1 conn=w kv=0.120 kw=11.35 pf=0.93
new Load.140 phases=1 bus1=S19.2 conn=w kv=0.120 kw=14.02 pf=0.97
new Load.141 phases=1 bus1=S19.3 conn=w kv=0.120 kw=15.38 pf=0.93
new Load.142 phases=1 bus1=S19.1.2 conn=d kv=0.208 kw=33.61 pf=0.78
new Load.143 phases=1 bus1=S19.2.3 conn=d kv=0.208 kw=36.04 pf=0.79
new Load.144 phases=1 bus1=S19.3.1 conn=d kv=0.208 kw=27.90 pf=0.82
new Load.145 phases=1 bus1=S20.1 conn=w kv=0.120 kw=15.80 pf=0.99
new Load.146 phases=1 bus1=S20.2 conn=w kv=0.120 kw=13.98 pf=0.91
new Load.147 phases=1 bus1=S20.3 conn=w kv=0.120 kw=12.90 pf=0.93
new Load.148 phases=1 bus1=S20.1.2 conn=d kv=0.208 kw=28.11 pf=0.76
new Load.149 phases=1 bus1=S20.2.3 conn=d kv=0.208 kw=31.40 pf=0.78
new Load.150 phases=1 bus1=S20.3.1 conn=d kv=0.208 kw=34.79 pf=0.82
new Load.151 phases=1 bus1=S21.1 conn=w kv=0.120 kw=16.29 pf=0.95
new Load.152 phases=1 bus1=S21.2 conn=w kv=0.120 kw=13.81 pf=0.91
new Load.153 phases=1 bus1=S21.3 conn=w kv=0.120 kw=13.05 pf=0.97
new Load.154 phases=1 bus1=S21.1.2 conn=d kv=0.208 kw=30.12 pf=0.83
new Load.155 phases=1 bus1=S21.2.3 conn=d kv=0.208 kw=31.94 pf=0.80
new Load.156 phases=1 bus1=S21.3.1 conn=d kv=0.208 kw=36.38 pf=0.78
new Load.157 phases=1 bus1=S22.1 conn=w kv=0.120 kw=14.73 pf=0.91
new Load.158 phases=1 bus1=S22.2 conn=w kv=0.120 kw=12.07 pf=0.93
new Load.159 phases=1 bus1=S22.3 conn=w kv=0.120 kw=13.30 pf=0.98
new Load.160 phases=1 bus1=S22.1.2 conn=d kv=0.208 kw=36.12 pf=0.82
new Load.161 phases=1 bus1=S22.2.3 conn=d kv=0.208 kw=33.91 pf=0.79
new Load.162 phases=1 bus1=S22.3.1 conn=d kv=0.208 kw=34.94 pf=0.81
new Load.163 phases=1 bus1=S23.1 conn=w kv=0.120 kw=41.67 pf=0.97
new Load.164 phases=1 bus1=S23.2 conn=w kv=0.120 kw=44.08 pf=0.93
new Load.165 phases=1 bus1=S23.3 conn=w kv=0.120 kw=34.47 pf=0.98
new Load.166 phases=1 bus1=S23.1.2 conn=d kv=0.208 kw=101.57 pf=0.81
new Load.167 phases=1 bus1=S23.2.3 conn=d kv=0.208 kw=113.38 pf=0.82
new Load.168 phases=1 bus1=S23.3.1 conn=d kv=0.208 kw=97.23 pf=0.77
new Load.169 phases=1 bus1=S24.1 conn=w kv=0.120 kw=34.33 pf=0.94
new Load.170 phases=1 bus1=S24.2 conn=w kv=0.120 kw=42.83 pf=0.95
new Load.171 phases=1 bus1=S24.3 conn=w kv=0.120 kw=46.08 pf=0.92
new Load.172 phases=1 bus1=S24.1.2 conn=d kv=0.208 kw=84.09 pf=0.76
new Load.173 phases=1 bus1=S24.2.3 conn=d kv=0.208 kw=98.49 pf=0.80
new Load.174 phases=1 bus1=S24.3.1 conn=d kv=0.208 kw=85.75 pf=0.79
new Load.175 phases=1 bus1=S25.1 conn=w kv=0.120 kw=36.48 pf=0.90
new Load.176 phases=1 bus1=S25.2 conn=w kv=0.120 kw=47.23 pf=0.98
new Load.177 phases=1 bus1=S25.3 conn=w kv=0.120 kw=46.74 pf=0.99
new Load.178 phases=1 bus1=S25.1.2 conn=d kv=0.208 kw=101.51 pf=0.82
new Load.179 phases=1 bus1=S25.2.3 conn=d kv=0.208 kw=109.37 pf=0.78
new Load.180 phases=1 bus1=S25.3.1 conn=d kv=0.208 kw=97.87 pf=0.77
new Load.181 phases=1 bus1=S26.1 conn=w kv=0.120 kw=16.41 pf=0.92
new Load.182 phases=1 bus1=S26.2 conn=w kv=0.120 kw=12.29 pf=0.92
new Load.183 phases=1 bus1=S26.3 conn=w kv=0.120 kw=14.77 pf=0.95
new Load.184 phases=1 bus1=S26.1.2 conn=d kv=0.208 kw=26.87 pf=0.79
new Load.185 phases=1 bus1=S26.2.3 conn=d kv=0.208 kw=31.65 pf=0.78
new Load.186 phases=1 bus1=S26.3.1 conn=d kv=0.208 kw=37.40 pf=0.80
new Load.187 phases=1 bus1=S31.1 conn=w kv=0.120 kw=13.35 pf=0.98
new Load.188 phases=1 bus1=S31.2 conn=w kv=0.120 kw=14.57 pf=0.92
new Load.189 phases=1 bus1=S31.3 conn=w kv=0.120 kw=13.73 pf=0.92
new Load.190 phases=1 bus1=S31.1.2 conn=d kv=0.208 kw=37.07 pf=0.80
new Load.191 phases=1 bus1=S31.2.3 conn=d kv=0.208 kw=33.43 pf=0.84
new Load.192 phases=1 bus1=S31.3.1 conn=d kv=0.208 kw=32.15 pf=0.77
new Load.193 phases=1 bus1=S32.1 conn=w kv=0.120 kw=11.65 pf=0.94
new Load.194 phases=1 bus1=S32.2 conn=w kv=0.120 kw=12.16 pf=0.92
new Load.195 phases=1 bus1=S32.3 conn=w kv=0.120 kw=13.06 pf=0.92
new Load.196 phases=1 bus1=S32.1.2 conn=d kv=0.208 kw=30.79 pf=0.82
new Load.197 phases=1 bus1=S32.2.3 conn=d kv=0.208 kw=30.40 pf=0.79
new Load.198 phases=1 bus1=S32.3.1 conn=d kv=0.208 kw=28.33 pf=0.80
new Load.199 phases=1 bus1=S37.1 conn=w kv=0.120 kw=14.79 pf=0.92
new Load.200 phases=1 bus1=S37.2 conn=w kv=0.120 kw=12.71 pf=0.97
...
 
new Transformer.1 buses=[P4,P5] kvs=[229.999,13.800] kvas=[50000,50000] conns=[d,d] xhl=7.5 %loadloss=0.75
new Transformer.2 buses=[P8,P9] kvs=[229.999,13.800] kvas=[50000,50000] conns=[d,d] xhl=7.5 %loadloss=0.75
new Transformer.3 buses=[P41,S196] kvs=[13.800,0.480] kvas=[2000,2000] conns=[d,w] xhl=7 %loadloss=0.7
new Transformer.4 buses=[P111,S197] kvs=[13.800,0.480] kvas=[2000,2000] conns=[d,w] xhl=7 %loadloss=0.7
new Transformer.5 buses=[P61,S201] kvs=[13.800,0.480] kvas=[1500,1500] conns=[d,w] xhl=7 %loadloss=0.7
new Transformer.6 buses=[P131,S202] kvs=[13.800,0.480] kvas=[1500,1500] conns=[d,w] xhl=7 %loadloss=0.7
new Transformer.7 buses=[P22,S207] kvs=[13.800,0.480] kvas=[2000,2000] conns=[d,w] xhl=7 %loadloss=0.7
new Transformer.8 buses=[P74,S208] kvs=[13.800,0.480] kvas=[2000,2000] conns=[d,w] xhl=7 %loadloss=0.7
new Transformer.9 buses=[P144,S209] kvs=[13.800,0.480] kvas=[2000,2000] conns=[d,w] xhl=7 %loadloss=0.7
new Transformer.10 buses=[P76,S214] kvs=[13.800,0.480] kvas=[2500,2500] conns=[d,w] xhl=7 %loadloss=0.7
new Transformer.11 buses=[P92,S215] kvs=[13.800,0.480] kvas=[2500,2500] conns=[d,w] xhl=7 %loadloss=0.7
new Transformer.12 buses=[P146,S216] kvs=[13.800,0.480] kvas=[2500,2500] conns=[d,w] xhl=7 %loadloss=0.7
new Transformer.13 buses=[P34,S221] kvs=[13.800,0.480] kvas=[2000,2000] conns=[d,w] xhl=7 %loadloss=0.7
new Transformer.14 buses=[P55,S222] kvs=[13.800,0.480] kvas=[2000,2000] conns=[d,w] xhl=7 %loadloss=0.7
new Transformer.15 buses=[P107,S223] kvs=[13.800,0.480] kvas=[2000,2000] conns=[d,w] xhl=7 %loadloss=0.7
new Transformer.16 buses=[P54,S228] kvs=[13.800,0.480] kvas=[2500,2500] conns=[d,w] xhl=7 %loadloss=0.7
new Transformer.17 buses=[P104,S229] kvs=[13.800,0.480] kvas=[2500,2500] conns=[d,w] xhl=7 %loadloss=0.7
new Transformer.18 buses=[P124,S230] kvs=[13.800,0.480] kvas=[2500,2500] conns=[d,w] xhl=7 %loadloss=0.7
new Transformer.19 buses=[P69,S234] kvs=[13.800,0.480] kvas=[2000,2000] conns=[d,w] xhl=7 %loadloss=0.7
new Transformer.20 buses=[P139,S235] kvs=[13.800,0.480] kvas=[2000,2000] conns=[d,w] xhl=7 %loadloss=0.7
new Transformer.21 buses=[P16,S238] kvs=[13.800,0.480] kvas=[2500,2500] conns=[d,w] xhl=7 %loadloss=0.7
new Transformer.22 buses=[P87,S240] kvs=[13.800,0.480] kvas=[2500,2500] conns=[d,w] xhl=7 %loadloss=0.7
new Transformer.23 buses=[P150,S148] kvs=[13.800,0.208] kvas=[1000,1000] conns=[d,w] xhl=5 %loadloss=0.5
new Transformer.24 buses=[P133,S145] kvs=[13.800,0.208] kvas=[1000,1000] conns=[d,w] xhl=5 %loadloss=0.5
new Transformer.25 buses=[P115,S152] kvs=[13.800,0.208] kvas=[1000,1000] conns=[d,w] xhl=5 %loadloss=0.5
new Transformer.26 buses=[P96,S149] kvs=[13.800,0.208] kvas=[1000,1000] conns=[d,w] xhl=5 %loadloss=0.5
new Transformer.27 buses=[P80,S156] kvs=[13.800,0.208] kvas=[1000,1000] conns=[d,w] xhl=5 %loadloss=0.5
new Transformer.28 buses=[P61,S153] kvs=[13.800,0.208] kvas=[1000,1000] conns=[d,w] xhl=5 %loadloss=0.5
new Transformer.29 buses=[P43,S160] kvs=[13.800,0.208] kvas=[1000,1000] conns=[d,w] xhl=5 %loadloss=0.5
new Transformer.30 buses=[P26,S157] kvs=[13.800,0.208] kvas=[1000,1000] conns=[d,w] xhl=5 %loadloss=0.5
new Transformer.31 buses=[P94,S147] kvs=[13.800,0.208] kvas=[1000,1000] conns=[d,w] xhl=5 %loadloss=0.5
new Transformer.32 buses=[P113,S146] kvs=[13.800,0.208] kvas=[1000,1000] conns=[d,w] xhl=5 %loadloss=0.5
new Transformer.33 buses=[P148,S151] kvs=[13.800,0.208] kvas=[1000,1000] conns=[d,w] xhl=5 %loadloss=0.5
new Transformer.34 buses=[P130,S150] kvs=[13.800,0.208] kvas=[1000,1000] conns=[d,w] xhl=5 %loadloss=0.5
new Transformer.35 buses=[P24,S155] kvs=[13.800,0.208] kvas=[1000,1000] conns=[d,w] xhl=5 %loadloss=0.5
new Transformer.36 buses=[P40,S154] kvs=[13.800,0.208] kvas=[1000,1000] conns=[d,w] xhl=5 %loadloss=0.5
new Transformer.37 buses=[P78,S159] kvs=[13.800,0.208] kvas=[1000,1000] conns=[d,w] xhl=5 %loadloss=0.5
new Transformer.38 buses=[P58,S158] kvs=[13.800,0.208] kvas=[1000,1000] conns=[d,w] xhl=5 %loadloss=0.5
new Transformer.39 buses=[P109,S164] kvs=[13.800,0.208] kvas=[1000,1000] conns=[d,w] xhl=5 %loadloss=0.5
new Transformer.40 buses=[P128,S161] kvs=[13.800,0.208] kvas=[1000,1000] conns=[d,w] xhl=5 %loadloss=0.5
new Transformer.41 buses=[P21,S168] kvs=[13.800,0.208] kvas=[1000,1000] conns=[d,w] xhl=5 %loadloss=0.5
new Transformer.42 buses=[P73,S165] kvs=[13.800,0.208] kvas=[1000,1000] conns=[d,w] xhl=5 %loadloss=0.5
new Transformer.43 buses=[P91,S172] kvs=[13.800,0.208] kvas=[1000,1000] conns=[d,w] xhl=5 %loadloss=0.5
new Transformer.44 buses=[P145,S169] kvs=[13.800,0.208] kvas=[1000,1000] conns=[d,w] xhl=5 %loadloss=0.5
new Transformer.45 buses=[P89,S176] kvs=[13.800,0.208] kvas=[1000,1000] conns=[d,w] xhl=5 %loadloss=0.5
new Transformer.46 buses=[P38,S173] kvs=[13.800,0.208] kvas=[1000,1000] conns=[d,w] xhl=5 %loadloss=0.5
new Transformer.47 buses=[P56,S163] kvs=[13.800,0.208] kvas=[1000,1000] conns=[d,w] xhl=5 %loadloss=0.5
new Transformer.48 buses=[P126,S162] kvs=[13.800,0.208] kvas=[1000,1000] conns=[d,w] xhl=5 %loadloss=0.5
new Transformer.49 buses=[P142,S167] kvs=[13.800,0.208] kvas=[1000,1000] conns=[d,w] xhl=5 %loadloss=0.5
new Transformer.50 buses=[P106,S166] kvs=[13.800,0.208] kvas=[1000,1000] conns=[d,w] xhl=5 %loadloss=0.5
new Transformer.51 buses=[P19,S171] kvs=[13.800,0.208] kvas=[1000,1000] conns=[d,w] xhl=5 %loadloss=0.5
new Transformer.52 buses=[P36,S170] kvs=[13.800,0.208] kvas=[1000,1000] conns=[d,w] xhl=5 %loadloss=0.5
new Transformer.53 buses=[P52,S175] kvs=[13.800,0.208] kvas=[1000,1000] conns=[d,w] xhl=5 %loadloss=0.5
new Transformer.54 buses=[P71,S174] kvs=[13.800,0.208] kvas=[1000,1000] conns=[d,w] xhl=5 %loadloss=0.5
new Transformer.55 buses=[P17,S180] kvs=[13.800,0.208] kvas=[1000,1000] conns=[d,w] xhl=5 %loadloss=0.5
new Transformer.56 buses=[P137,S177] kvs=[13.800,0.208] kvas=[1000,1000] conns=[d,w] xhl=5 %loadloss=0.5
new Transformer.57 buses=[P122,S184] kvs=[13.800,0.208] kvas=[1000,1000] conns=[d,w] xhl=5 %loadloss=0.5
new Transformer.58 buses=[P50,S181] kvs=[13.800,0.208] kvas=[1000,1000] conns=[d,w] xhl=5 %loadloss=0.5
new Transformer.59 buses=[P86,S188] kvs=[13.800,0.208] kvas=[1000,1000] conns=[d,w] xhl=5 %loadloss=0.5
new Transformer.60 buses=[P102,S185] kvs=[13.800,0.208] kvas=[1000,1000] conns=[d,w] xhl=5 %loadloss=0.5
new Transformer.61 buses=[P14,S192] kvs=[13.800,0.208] kvas=[1000,1000] conns=[d,w] xhl=5 %loadloss=0.5
new Transformer.62 buses=[P140,S189] kvs=[13.800,0.208] kvas=[1000,1000] conns=[d,w] xhl=5 %loadloss=0.5
new Transformer.63 buses=[P65,S179] kvs=[13.800,0.208] kvas=[1000,1000] conns=[d,w] xhl=5 %loadloss=0.5
new Transformer.64 buses=[P120,S178] kvs=[13.800,0.208] kvas=[1000,1000] conns=[d,w] xhl=5 %loadloss=0.5
new Transformer.65 buses=[P48,S183] kvs=[13.800,0.208] kvas=[1000,1000] conns=[d,w] xhl=5 %loadloss=0.5
new Transformer.66 buses=[P100,S182] kvs=[13.800,0.208] kvas=[1000,1000] conns=[d,w] xhl=5 %loadloss=0.5
new Transformer.67 buses=[P30,S187] kvs=[13.800,0.208] kvas=[1000,1000] conns=[d,w] xhl=5 %loadloss=0.5
new Transformer.68 buses=[P67,S186] kvs=[13.800,0.208] kvas=[1000,1000] conns=[d,w] xhl=5 %loadloss=0.5
new Transformer.69 buses=[P32,S191] kvs=[13.800,0.208] kvas=[1000,1000] conns=[d,w] xhl=5 %loadloss=0.5
new Transformer.70 buses=[P84,S190] kvs=[13.800,0.208] kvas=[1000,1000] conns=[d,w] xhl=5 %loadloss=0.5
 
Set Voltagebases=[230, 13.8, 0.48, 0.208]
calcv
buscoords buscoords.dat
solve
